                                   MODFLOW 6
                U.S. GEOLOGICAL SURVEY MODULAR HYDROLOGIC MODEL
                   VERSION 6.4.0 release candidate 10/05/2022
                               ***DEVELOP MODE***

   MODFLOW 6 compiled Oct 05 2022 03:42:46 with Intel(R) Fortran Intel(R) 64
   Compiler Classic for applications running on Intel(R) 64, Version 2021.6.0
                             Build 20220226_000000

This software is preliminary or provisional and is subject to 
revision. It is being provided to meet the need for timely best 
science. The software has not received final approval by the U.S. 
Geological Survey (USGS). No warranty, expressed or implied, is made 
by the USGS or the U.S. Government as to the functionality of the 
software and related material nor shall the fact of release 
constitute any such warranty. The software is provided on the 
condition that neither the USGS nor the U.S. Government shall be held 
liable for any damages resulting from the authorized or unauthorized 
use of the software.


As a work of the United States Government, this USGS product is 
in the public domain within the United States. You can copy, 
modify, distribute, and perform the work, even for commercial 
purposes, all without asking permission. Additionally, USGS 
waives copyright and related rights in the work worldwide 
through CC0 1.0 Universal Public Domain Dedication 
(https://creativecommons.org/publicdomain/zero/1.0/).

The following GNU Lesser General Public License (LGPL) libraries
are used in this USGS product:

    SPARSKIT version 2.0
      ilut, luson, and qsplit 
      (https://www-users.cse.umn.edu/~saad/software/SPARSKIT/)

    RCM - Reverse Cuthill McKee Ordering
      (https://people.math.sc.edu/Burkardt/f_src/rcm/rcm.html)

    BLAS - Basic Linear Algebra Subprograms Level 1
      (https://people.math.sc.edu/Burkardt/f_src/blas1_d/blas1_d.html)

    SPARSEKIT - Sparse Matrix Utility Package
      amux, dperm, dvperm, rperm, and cperm
      (https://people.sc.fsu.edu/~jburkardt/f77_src/sparsekit/sparsekit.html)

The following BSD-3 License libraries are used in this USGS product:

    Modern Fortran DAG Library
      Copyright (c) 2018, Jacob Williams
      All rights reserved.
      (https://github.com/jacobwilliams/daglib)

MODFLOW 6 compiler options: /Isrc\libmf6core.a.p /Isrc /I..\src
/Isrc\libmf6_external.a.p /MTd /nologo /warn:general /warn:truncated_source
/stand:f08 /Zi /traceback /O2 /Zi /fpe:0 /heap-arrays:0 /traceback /fpp
/Qdiag-disable:7416 /Qdiag-disable:7025 /Qdiag-disable:5268
/Fdsrc\libmf6core.a.p\Utilities_compilerversion.F90.pdb
/module:src\libmf6core.a.p
/Fosrc/libmf6core.a.p/Utilities_compilerversion.F90.obj /c

System command used to initiate simulation:
C:\Users\jlarsen\Documents\anaconda3\python.exe "C:/Users/jlarsen/AppData/Local/JetBrains/PyCharm Community Edition 2022.2.1/plugins/python-ce/helpers/pydev/pydevd.py" --multiprocess --qt-support=auto --client 127.0.0.1 --port 56203 --file C:/Users/jlarsen/Desktop/mf6_AG/modflow-api/develop.py

MODFLOW was compiled using uniform precision.

Real Variables
  KIND: 8
  TINY (smallest non-zero value):    2.225074-308
  HUGE (largest value):    1.797693+308
  PRECISION: 15
  BIT SIZE: 64

Integer Variables
  KIND: 4
  HUGE (largest value): 2147483647
  BIT SIZE: 32

Long Integer Variables
  KIND: 8
  HUGE (largest value): 9223372036854775807
  BIT SIZE: 64

Logical Variables
  KIND: 4
  BIT SIZE: 32
 

 OPENED mfsim.nam
 FILE TYPE:NAM   UNIT 1002   STATUS:OLD                 
 FORMAT:FORMATTED              ACCESS:SEQUENTIAL          
 ACTION:READ                

 #none

 READING SIMULATION OPTIONS
 END OF SIMULATION OPTIONS

 READING SIMULATION TIMING

 OPENED simulation.tdis
 FILE TYPE:TDIS   UNIT 1003   STATUS:OLD                 
 FORMAT:FORMATTED              ACCESS:SEQUENTIAL          
 ACTION:READ                


 TDIS -- TEMPORAL DISCRETIZATION PACKAGE,
 VERSION 1 : 11/13/2014 - INPUT READ FROM UNIT 1003
 PROCESSING TDIS OPTIONS
    SIMULATION TIME UNIT IS DAYS
 END OF TDIS OPTIONS
 PROCESSING TDIS DIMENSIONS
    1 STRESS PERIOD(S) IN SIMULATION
 END OF TDIS DIMENSIONS
 #perlen nstp  tsmult
 PROCESSING TDIS PERIODDATA


 STRESS PERIOD     LENGTH       TIME STEPS     MULTIPLIER FOR DELT
 ----------------------------------------------------------------------------
        1         1.000000          1                    1.000
 END OF TDIS PERIODDATA
 END OF SIMULATION TIMING
 #modeltype      namefile      modelname

 READING SIMULATION MODELS
    GWF6 model PARENT will be created as model 1
    GWF6 model CHILD will be created as model 2
 END OF SIMULATION MODELS

 READING SIMULATION EXCHANGES
    GWF6-GWF6 exchange 1 will be created to connect model 1 with model 2
 END OF SIMULATION EXCHANGES

 READING SOLUTIONGROUP

 Creating solution: SLN_1           

 OPENED simulation.ims
 FILE TYPE:IMS   UNIT 1019   STATUS:OLD                 
 FORMAT:FORMATTED              ACCESS:SEQUENTIAL          
 ACTION:READ                

 END OF SIMULATION SOLUTIONGROUP

 Creating exchange: GWF-GWF_1       

 OPENED simulation.exg
 FILE TYPE:GWF-GWF   UNIT 1020   STATUS:OLD                 
 FORMAT:FORMATTED              ACCESS:SEQUENTIAL          
 ACTION:READ                

 PROCESSING GWF-GWF EXCHANGE OPTIONS
    THE LIST OF EXCHANGES WILL BE PRINTED.
    EXCHANGE FLOWS WILL BE PRINTED TO LIST FILES.
    EXCHANGE FLOWS WILL BE SAVED TO BINARY BUDGET FILES.
    AUXILIARY GWF_GWF_Exchange VARIABLE: TESTAUX         

 OPENED simulation.gnc
 FILE TYPE:GNC   UNIT 1021   STATUS:OLD                 
 FORMAT:FORMATTED              ACCESS:SEQUENTIAL          
 ACTION:READ                

    GHOST NODES WILL BE READ FROM 
    simulation.gnc

 OPENED simulation.mvr
 FILE TYPE:MVR   UNIT 1022   STATUS:OLD                 
 FORMAT:FORMATTED              ACCESS:SEQUENTIAL          
 ACTION:READ                

    WATER MOVER INFORMATION WILL BE READ FROM 
    simulation.mvr
 END OF GWF-GWF EXCHANGE OPTIONS
 PROCESSING EXCHANGE DIMENSIONS
    NEXG = 36
 END OF EXCHANGE DIMENSIONS
 # nodem1 nodem2  ihc  cl1   cl2    hwva  testaux
 #
 #       left side
 PROCESSING EXCHANGEDATA
         NODEM1    NODEM2       IHC             CL1             CL2            HWVA         TESTAUX
     1 3 2 1 1 1         1     50.0000         16.6700         33.3300         100.990    
     1 3 2 1 2 1         1     50.0000         16.6700         33.3300         100.990    
     1 3 2 1 3 1         1     50.0000         16.6700         33.3300         100.990    
     1 4 2 1 4 1         1     50.0000         16.6700         33.3300         100.990    
     1 4 2 1 5 1         1     50.0000         16.6700         33.3300         100.990    
     1 4 2 1 6 1         1     50.0000         16.6700         33.3300         100.990    
     1 5 2 1 7 1         1     50.0000         16.6700         33.3300         100.990    
     1 5 2 1 8 1         1     50.0000         16.6700         33.3300         100.990    
     1 5 2 1 9 1         1     50.0000         16.6700         33.3300         100.990    
 #
 #       right side
     1 3 6 1 1 9         1     50.0000         16.6700         33.3300         100.990    
     1 3 6 1 2 9         1     50.0000         16.6700         33.3300         100.990    
     1 3 6 1 3 9         1     50.0000         16.6700         33.3300         100.990    
     1 4 6 1 4 9         1     50.0000         16.6700         33.3300         100.990    
     1 4 6 1 5 9         1     50.0000         16.6700         33.3300         100.990    
     1 4 6 1 6 9         1     50.0000         16.6700         33.3300         100.990    
     1 5 6 1 7 9         1     50.0000         16.6700         33.3300         100.990    
     1 5 6 1 8 9         1     50.0000         16.6700         33.3300         100.990    
     1 5 6 1 9 9         1     50.0000         16.6700         33.3300         100.990    
 #
 #       back
     1 2 3 1 1 1         1     50.0000         16.6700         33.3300         100.990    
     1 2 3 1 1 2         1     50.0000         16.6700         33.3300         100.990    
     1 2 3 1 1 3         1     50.0000         16.6700         33.3300         100.990    
     1 2 4 1 1 4         1     50.0000         16.6700         33.3300         100.990    
     1 2 4 1 1 5         1     50.0000         16.6700         33.3300         100.990    
     1 2 4 1 1 6         1     50.0000         16.6700         33.3300         100.990    
     1 2 5 1 1 7         1     50.0000         16.6700         33.3300         100.990    
     1 2 5 1 1 8         1     50.0000         16.6700         33.3300         100.990    
     1 2 5 1 1 9         1     50.0000         16.6700         33.3300         100.990    
 #
 #       front
     1 6 3 1 9 1         1     50.0000         16.6700         33.3300         100.990    
     1 6 3 1 9 2         1     50.0000         16.6700         33.3300         100.990    
     1 6 3 1 9 3         1     50.0000         16.6700         33.3300         100.990    
     1 6 4 1 9 4         1     50.0000         16.6700         33.3300         100.990    
     1 6 4 1 9 5         1     50.0000         16.6700         33.3300         100.990    
     1 6 4 1 9 6         1     50.0000         16.6700         33.3300         100.990    
     1 6 5 1 9 7         1     50.0000         16.6700         33.3300         100.990    
     1 6 5 1 9 8         1     50.0000         16.6700         33.3300         100.990    
     1 6 5 1 9 9         1     50.0000         16.6700         33.3300         100.990    
 END OF EXCHANGEDATA
 #I2KN
 #IMPLICIT
 PROCESSING GNC OPTIONS
    THE LIST OF GHOST-NODE CORRECTIONS WILL BE PRINTED.
    DELTAQGNC VALUES WILL BE PRINTED TO THE LIST FILE.
 END OF GNC OPTIONS
 PROCESSING GNC DIMENSIONS
    NUMGNC =      36
    NUMAPHAJ =       1
 END OF GNC DIMENSIONS
 #    noden  nodem nodesj          alphasj
 #       left side
 PROCESSING GNCDATA
        16         1         9   0.333333    
        16        10         0   0.333333    
        16        19        23   0.333333    
        23        28        16   0.333333    
        23        37         0   0.333333    
        23        46        30   0.333333    
        30        55        23   0.333333    
        30        64         0   0.333333    
        30        73        37   0.333333    
 #
 #       right side
        20         9        13   0.333333    
        20        18         0   0.333333    
        20        27        27   0.333333    
        27        36        20   0.333333    
        27        45         0   0.333333    
        27        54        34   0.333333    
        34        63        27   0.333333    
        34        72         0   0.333333    
        34        81        41   0.333333    
 #
 #       back
        10         1         9   0.333333    
        10         2         0   0.333333    
        10         3        11   0.333333    
        11         4        10   0.333333    
        11         5         0   0.333333    
        11         6        12   0.333333    
        12         7        11   0.333333    
        12         8         0   0.333333    
        12         9        13   0.333333    
 #
 #       front
        38        73        37   0.333333    
        38        74         0   0.333333    
        38        75        39   0.333333    
        39        76        38   0.333333    
        39        77         0   0.333333    
        39        78        40   0.333333    
        40        79        39   0.333333    
        40        80         0   0.333333    
        40        81        41   0.333333    
 END OF GNCDATA

PROCESSING MODEL CONNECTIONS
END OF MODEL CONNECTIONS

 MVR -- WATER MOVER PACKAGE, VERSION 8, 1/29/2016 INPUT READ FROM UNIT 1022
 PROCESSING MVR OPTIONS
    WATER MOVER INPUT WILL BE PRINTED TO LIST FILE.
    LISTS OF WATER MOVER FLOWS WILL BE PRINTED TO LIST FILE.
    ALL PACKAGE NAMES ARE PRECEDED BY THE NAME OF THE MODEL CONTAINING THE PACKAGE.
 END OF MVR OPTIONS

 PROCESSING MVR DIMENSIONS
    MAXMVR = 10
    MAXPACKAGES = 2
 END OF MVR DIMENSIONS

 PROCESSING MVR PACKAGES
   INCLUDING PACKAGE: PARENT/MAW-1
   INCLUDING PACKAGE: CHILD/MAW-1
 END OF MVR PACKAGES

 IMS -- ITERATIVE MODEL SOLUTION PACKAGE, VERSION 6, 4/28/2017
         INPUT READ FROM UNIT 1019

 PROCESSING IMS OPTIONS
 END OF IMS OPTIONS

 PROCESSING IMS NONLINEAR
 END OF IMS NONLINEAR DATA
 ***UNDER-RELAXATION WILL NOT BE USED***
 
 ***IMS LINEAR SOLVER WILL BE USED***

 IMSLINEAR -- UNSTRUCTURED LINEAR SOLUTION PACKAGE, VERSION 8, 04/28/2017

 PROCESSING LINEAR DATA
 END OF LINEAR DATA
 
 An asymmetric matrix will be solved

 OUTER ITERATION CONVERGENCE CRITERION    (DVCLOSE) =    0.100000E-07
 MAXIMUM NUMBER OF OUTER ITERATIONS        (MXITER) = 1000
 SOLVER PRINTOUT INDEX                     (IPRIMS) = 1
 NONLINEAR ITERATION METHOD            (NONLINMETH) = 0
 LINEAR SOLUTION METHOD                   (LINMETH) = 1

       SOLUTION BY THE BICONJUGATE-GRADIENT STABILIZED METHOD
 ------------------------------------------------------------------
 MAXIMUM OF 1000 CALLS OF SOLUTION ROUTINE
 MAXIMUM OF 1000 INTERNAL ITERATIONS PER CALL TO SOLUTION ROUTINE
 LINEAR ACCELERATION METHOD            = BCGS      
 MATRIX PRECONDITIONING TYPE           = MOD. INCOMPLETE LU  
 MATRIX SCALING APPROACH               = NO SCALING          
 MATRIX REORDERING APPROACH            = ORIGINAL ORDERING        
 NUMBER OF ORTHOGONALIZATIONS          = 0
 HEAD CHANGE CRITERION FOR CLOSURE     =    0.10000E-07
 RESIDUAL CHANGE CRITERION FOR CLOSURE =    0.10000E-01
 RESIDUAL CONVERGENCE OPTION           = 0
 RESIDUAL CONVERGENCE NORM             = INFINITY NORM   
 RELAXATION FACTOR                     =    0.97000E+00



 
    Solving:  Stress period:     1    Time step:     1
 
1
                            STRESS PERIOD NO. 1, LENGTH =   1.000000    
                            -----------------------------------------------
                            NUMBER OF TIME STEPS = 1
                            MULTIPLIER FOR DELT =     1.000
 #  mnamep packnamep idp   mnamer packnamer idr   type val
 # -------------------------------------------------------

  READING WATER MOVERS FOR PERIOD 1
    FROM PACKAGE: CHILD/MAW-1 FROM ID: 1
    TO PACKAGE: PARENT/MAW-1 TO ID: 1
    MOVER TYPE: FACTOR    0.500000    


 END OF DATA FOR PERIOD      1

    1 MOVERS READ FOR PERIOD 1
                            INITIAL TIME STEP SIZE =   1.000000    



 PSEUDO-TRANSIENT CONTINUATION WILL BE APPLIED TO MODEL 1 ("PARENT") DURING THIS TIME STEP
 PSEUDO-TRANSIENT CONTINUATION WILL BE APPLIED TO MODEL 2 ("CHILD") DURING THIS TIME STEP

 SLN_1 OUTER ITERATION SUMMARY
 ----------------------------------------------------------------------------------------------------------
                                OUTER      INNER                    STEP   MAXIMUM CHANGE MODEL-(CELLID) OR
 OUTER ITERATION STEP       ITERATION  ITERATION  MAXIMUM CHANGE SUCCESS             MODEL-PACKAGE-(NUMBER)
 ----------------------------------------------------------------------------------------------------------
 Model                              1          7     -0.61286979                            2_GWF-(MAW_1-1)
 Model                              2         10      -2.6049081                            2_GWF-(MAW_1-1)
 Model                              3         10      -4.8205467                            2_GWF-(MAW_1-1)
 Model                              4         10      -4.8311999                            2_GWF-(MAW_1-1)
 Model                              5         10      -3.7693055                            2_GWF-(MAW_1-1)
 Model                              6         10      -2.1858657                            2_GWF-(MAW_1-1)
 Model                              7         10     -0.67930090                            2_GWF-(MAW_1-1)
 Model                              8          8 -5.73531815E-02                            2_GWF-(MAW_1-1)
 Model                              9          5 -3.81839744E-04                            2_GWF-(MAW_1-1)
 Model                             10          1 -5.80921267E-09       *                    1_GWF-(MAW_1-1)
 Model                             11          2 -2.06453610E-08                            2_GWF-(MAW_1-1)
 Model                             12          1 -2.21010765E-10       *                    1_GWF-(MAW_1-1)
 ----------------------------------------------------------------------------------------------------------


 12 CALLS TO NUMERICAL SOLUTION IN TIME STEP 1 STRESS PERIOD 1
 84 TOTAL ITERATIONS

 WATER MOVER PACKAGE (MVR) FLOW RATES   PERIOD      1   STEP        1
 --------------------------------------------------------------------------------------------------------------------------
                                               PROVIDER  AVAILABLE   PROVIDED                                     RECEIVER 
   NUMBER           PROVIDER LOCATION             ID        RATE       RATE            RECEIVER LOCATION             ID    
 --------------------------------------------------------------------------------------------------------------------------
     1                 CHILD/MAW-1                1       10.0       5.00                PARENT/MAW-1                1     
 --------------------------------------------------------------------------------------------------------------------------



 SUMMARY OF EXCHANGE RATES FOR EXCHANGE GWF-GWF_1 WITH ID 1
          NODEM1          NODEM2            COND            X_M1            X_M2       DELTAQGNC            FLOW
----------------------------------------------------------------------------------------------------------------
         (1,3,2)         (1,1,1)     49.9925        0.831570        0.714630        2.605416E-02    -5.82008    
         (1,3,2)         (1,2,1)     49.9925        0.831570        0.714222         0.00000        -5.86653    
         (1,3,2)         (1,3,1)     49.9925        0.831570        0.714304       -0.172448        -6.03486    
         (1,4,2)         (1,4,1)     49.9925        0.841919        0.714573        0.172448        -6.19388    
         (1,4,2)         (1,5,1)     49.9925        0.841919        0.714886         0.00000        -6.35070    
         (1,4,2)         (1,6,1)     49.9925        0.841919        0.714573        0.172448        -6.19388    
         (1,5,2)         (1,7,1)     49.9925        0.831570        0.714304       -0.172448        -6.03486    
         (1,5,2)         (1,8,1)     49.9925        0.831570        0.714222         0.00000        -5.86653    
         (1,5,2)         (1,9,1)     49.9925        0.831570        0.714630        2.605416E-02    -5.82008    
         (1,3,6)         (1,1,9)     49.9925        0.159498        0.266870       -3.130592E-02     5.33649    
         (1,3,6)         (1,2,9)     49.9925        0.159498        0.265426         0.00000         5.29559    
         (1,3,6)         (1,3,9)     49.9925        0.159498        0.264009        1.897657E-02     5.24375    
         (1,4,6)         (1,4,9)     49.9925        0.158359        0.262852       -1.897657E-02     5.20486    
         (1,4,6)         (1,5,9)     49.9925        0.158359        0.262345         0.00000         5.19848    
         (1,4,6)         (1,6,9)     49.9925        0.158359        0.262852       -1.897657E-02     5.20486    
         (1,5,6)         (1,7,9)     49.9925        0.159498        0.264009        1.897657E-02     5.24375    
         (1,5,6)         (1,8,9)     49.9925        0.159498        0.265426         0.00000         5.29559    
         (1,5,6)         (1,9,9)     49.9925        0.159498        0.266870       -3.130592E-02     5.33649    
         (1,2,3)         (1,1,1)     49.9925        0.658456        0.714630        -2.85876       -5.046198E-02
         (1,2,3)         (1,1,2)     49.9925        0.658456        0.656332         0.00000       -0.106146    
         (1,2,3)         (1,1,3)     49.9925        0.658456        0.598239         2.82793       -0.182440    
         (1,2,4)         (1,1,4)     49.9925        0.488754        0.540618        -2.82793       -0.235142    
         (1,2,4)         (1,1,5)     49.9925        0.488754        0.483913         0.00000       -0.242044    
         (1,2,4)         (1,1,6)     49.9925        0.488754        0.428593         2.75214       -0.255481    
         (1,2,5)         (1,1,7)     49.9925        0.323601        0.374206        -2.75214       -0.222274    
         (1,2,5)         (1,1,8)     49.9925        0.323601        0.320352         0.00000       -0.162450    
         (1,2,5)         (1,1,9)     49.9925        0.323601        0.266870         2.70333       -0.132786    
         (1,6,3)         (1,9,1)     49.9925        0.658456        0.714630        -2.85876       -5.046198E-02
         (1,6,3)         (1,9,2)     49.9925        0.658456        0.656332         0.00000       -0.106146    
         (1,6,3)         (1,9,3)     49.9925        0.658456        0.598239         2.82793       -0.182440    
         (1,6,4)         (1,9,4)     49.9925        0.488754        0.540618        -2.82793       -0.235142    
         (1,6,4)         (1,9,5)     49.9925        0.488754        0.483913         0.00000       -0.242044    
         (1,6,4)         (1,9,6)     49.9925        0.488754        0.428593         2.75214       -0.255481    
         (1,6,5)         (1,9,7)     49.9925        0.323601        0.374206        -2.75214       -0.222274    
         (1,6,5)         (1,9,8)     49.9925        0.323601        0.320352         0.00000       -0.162450    
         (1,6,5)         (1,9,9)     49.9925        0.323601        0.266870         2.70333       -0.132786    


  WATER MOVER BUDGET FOR ENTIRE MODEL AT END OF TIME STEP    1, STRESS PERIOD   1
  ------------------------------------------------------------------------------

     CUMULATIVE WATER MOVER      L**3       RATES FOR THIS TIME STEP      L**3/T
     ------------------                 ------------------------

           IN:                                      IN:
           ---                                      ---
        PARENT/MAW-1 =           0.0000          PARENT/MAW-1 =           0.0000
         CHILD/MAW-1 =           5.0000           CHILD/MAW-1 =           5.0000

            TOTAL IN =           5.0000              TOTAL IN =           5.0000

          OUT:                                     OUT:
          ----                                     ----
        PARENT/MAW-1 =           5.0000          PARENT/MAW-1 =           5.0000
         CHILD/MAW-1 =           0.0000           CHILD/MAW-1 =           0.0000

           TOTAL OUT =           5.0000             TOTAL OUT =           5.0000

            IN - OUT =           0.0000              IN - OUT =           0.0000

 PERCENT DISCREPANCY =           0.00     PERCENT DISCREPANCY =           0.00



 Solution SLN_1 summary
 ----------------------------------------------------------------------
 Total formulate time:  .000000000000000 seconds
 Total solution time:   .000000000000000 seconds


 MEMORY MANAGER TOTAL STORAGE BY DATA TYPE, IN KILOBYTES
 -------------------------------
                    ALLOCATED   
 DATA TYPE           MEMORY     
 -------------------------------
 Character        2.7700000     
 Logical          9.60000000E-02
 Integer          38.408000     
 Real             63.776000     
 -------------------------------
 Total            105.05000     
 -------------------------------


 
 Run end date and time (yyyy/mm/dd hh:mm:ss): 2022/10/17 14:23:06
 Elapsed run time:  2.214 Seconds

WARNING REPORT:

  1. The well bottoms in multi-aquifer well package MAW-1 were reset to the
     bottom of the connected cell 1 times.
  2. The well bottoms in multi-aquifer well package MAW-1 were reset to the
     bottom of the connected cell 1 times.
 Normal termination of simulation.
