                                   MODFLOW 6
                U.S. GEOLOGICAL SURVEY MODULAR HYDROLOGIC MODEL
                          GROUNDWATER FLOW MODEL (GWF)
                   VERSION 6.4.0 release candidate 10/05/2022
                               ***DEVELOP MODE***

   MODFLOW 6 compiled Oct 05 2022 03:42:46 with Intel(R) Fortran Intel(R) 64
   Compiler Classic for applications running on Intel(R) 64, Version 2021.6.0
                             Build 20220226_000000

This software is preliminary or provisional and is subject to 
revision. It is being provided to meet the need for timely best 
science. The software has not received final approval by the U.S. 
Geological Survey (USGS). No warranty, expressed or implied, is made 
by the USGS or the U.S. Government as to the functionality of the 
software and related material nor shall the fact of release 
constitute any such warranty. The software is provided on the 
condition that neither the USGS nor the U.S. Government shall be held 
liable for any damages resulting from the authorized or unauthorized 
use of the software.


As a work of the United States Government, this USGS product is 
in the public domain within the United States. You can copy, 
modify, distribute, and perform the work, even for commercial 
purposes, all without asking permission. Additionally, USGS 
waives copyright and related rights in the work worldwide 
through CC0 1.0 Universal Public Domain Dedication 
(https://creativecommons.org/publicdomain/zero/1.0/).

The following GNU Lesser General Public License (LGPL) libraries
are used in this USGS product:

    SPARSKIT version 2.0
      ilut, luson, and qsplit 
      (https://www-users.cse.umn.edu/~saad/software/SPARSKIT/)

    RCM - Reverse Cuthill McKee Ordering
      (https://people.math.sc.edu/Burkardt/f_src/rcm/rcm.html)

    BLAS - Basic Linear Algebra Subprograms Level 1
      (https://people.math.sc.edu/Burkardt/f_src/blas1_d/blas1_d.html)

    SPARSEKIT - Sparse Matrix Utility Package
      amux, dperm, dvperm, rperm, and cperm
      (https://people.sc.fsu.edu/~jburkardt/f77_src/sparsekit/sparsekit.html)

The following BSD-3 License libraries are used in this USGS product:

    Modern Fortran DAG Library
      Copyright (c) 2018, Jacob Williams
      All rights reserved.
      (https://github.com/jacobwilliams/daglib)

MODFLOW 6 compiler options: /Isrc\libmf6core.a.p /Isrc /I..\src
/Isrc\libmf6_external.a.p /MTd /nologo /warn:general /warn:truncated_source
/stand:f08 /Zi /traceback /O2 /Zi /fpe:0 /heap-arrays:0 /traceback /fpp
/Qdiag-disable:7416 /Qdiag-disable:7025 /Qdiag-disable:5268
/Fdsrc\libmf6core.a.p\Utilities_compilerversion.F90.pdb
/module:src\libmf6core.a.p
/Fosrc/libmf6core.a.p/Utilities_compilerversion.F90.obj /c

System command used to initiate simulation:
C:\Users\jlarsen\Documents\anaconda3\python.exe "C:/Users/jlarsen/AppData/Local/JetBrains/PyCharm Community Edition 2022.2.1/plugins/python-ce/helpers/pydev/pydevd.py" --multiprocess --qt-support=auto --client 127.0.0.1 --port 56203 --file C:/Users/jlarsen/Desktop/mf6_AG/modflow-api/develop.py

MODFLOW was compiled using uniform precision.

Real Variables
  KIND: 8
  TINY (smallest non-zero value):    2.225074-308
  HUGE (largest value):    1.797693+308
  PRECISION: 15
  BIT SIZE: 64

Integer Variables
  KIND: 4
  HUGE (largest value): 2147483647
  BIT SIZE: 32

Long Integer Variables
  KIND: 8
  HUGE (largest value): 9223372036854775807
  BIT SIZE: 64

Logical Variables
  KIND: 4
  BIT SIZE: 32
 

 OPENED model2.dis
 FILE TYPE:DIS6                   UNIT 1014   STATUS:OLD                 
 FORMAT:FORMATTED              ACCESS:SEQUENTIAL          
 ACTION:READ                


 OPENED model2.ic
 FILE TYPE:IC6                    UNIT 1015   STATUS:OLD                 
 FORMAT:FORMATTED              ACCESS:SEQUENTIAL          
 ACTION:READ                


 OPENED model2.npf
 FILE TYPE:NPF6                   UNIT 1016   STATUS:OLD                 
 FORMAT:FORMATTED              ACCESS:SEQUENTIAL          
 ACTION:READ                


 OPENED model2.mawq
 FILE TYPE:MAW6                   UNIT 1017   STATUS:OLD                 
 FORMAT:FORMATTED              ACCESS:SEQUENTIAL          
 ACTION:READ                


 OPENED model2.oc
 FILE TYPE:OC6                    UNIT 1018   STATUS:OLD                 
 FORMAT:FORMATTED              ACCESS:SEQUENTIAL          
 ACTION:READ                

 NAMEFILE OPTIONS:
    NEWTON-RAPHSON method enabled for the model.

 DIS -- STRUCTURED GRID DISCRETIZATION PACKAGE, VERSION 2 : 3/27/2014 - INPUT READ FROM UNIT 1014


 # Unstructured discretization file for MODFLOW-USG
 PROCESSING DISCRETIZATION OPTIONS
    MODEL LENGTH UNIT IS METERS
 END OF DISCRETIZATION OPTIONS
 PROCESSING DISCRETIZATION DIMENSIONS
    NLAY =       1
    NROW =       9
    NCOL =       9
 END OF DISCRETIZATION DIMENSIONS
 PROCESSING GRIDDATA

                     DELR =   33.33000    

                     DELC =   33.33000    

 TOP ELEVATION OF LAYER 1 =   0.000000    

   MODEL LAYER BOTTOM EL. =  -100.0000    
 END PROCESSING GRIDDATA

 NPF -- NODE PROPERTY FLOW PACKAGE, VERSION 1, 3/30/2015 INPUT READ FROM UNIT 1016


 PROCESSING NPF OPTIONS
    CELL-BY-CELL FLOW INFORMATION WILL BE SAVED TO BINARY FILE WHENEVER ICBCFL IS NOT ZERO.
 END OF NPF OPTIONS
 #
 PROCESSING GRIDDATA
 #
 #apply these arrays for the entire simulation
 #
 #icelltype(nodes) is 0:confined, 1:convertible, 4:upstream?

                ICELLTYPE = 0
 #
 #K(nodes) horizontal hydraulic conductivity

                        K =   1.000000    
 #
 #K33(nodes) vertical hydraulic conductivity

                      K33 =   1.000000    
 #
 #this will crash it  funkyarray
 #	constant
 K22 not provided.  Setting K22 = K.
 END PROCESSING GRIDDATA

 MAW   -- MAW PACKAGE, VERSION 8, 2/22/2014 INPUT READ FROM UNIT 1017
 #option block.  Note -- no comments allowed on auxiliary line

 PROCESSING MAW OPTIONS
    LISTS OF MAW CELLS WILL BE PRINTED.
    MAW FLOWS WILL BE PRINTED TO LISTING FILE.
    MAW BOUNDARIES HAVE NAMES IN LAST COLUMN.
 #OBS6 FILEIN        flow15.maw_2.obs
    MOVER OPTION ENABLED
 END OF MAW OPTIONS

 PROCESSING MAW DIMENSIONS
    NMAWWELLS = 1
 END OF MAW DIMENSIONS
 # no radius bottom strt     condeqn ngwnodes name

 PROCESSING MAW PACKAGEDATA
 END OF MAW PACKAGEDATA


    MAXBOUND =       1
 #   conn l  r  c  stop   sbot      K  rskin

 PROCESSING MAW CONNECTIONDATA
 END OF MAW CONNECTIONDATA

 IC -- INITIAL CONDITIONS PACKAGE, VERSION 8, 3/28/2015 INPUT READ FROM UNIT 1015
 # Basic package file for MODFLOW-USG, generated by Flopy.
 PROCESSING IC OPTIONS
 END OF IC OPTIONS
 PROCESSING GRIDDATA

     INITIAL HEAD =   1.000000    
 END PROCESSING GRIDDATA
    BINARY GRID INFORMATION WILL BE WRITTEN TO:
      UNIT NUMBER: 1026
      FILE NAME: C:\Users\jlarsen\Desktop\mf6_AG\modflow-api\two_models\model2.dis.grb

 OPENED C:\Users\jlarsen\Desktop\mf6_AG\modflow-api\two_models\model2.dis.grb
 FILE TYPE:DATA(BINARY)   UNIT 1026   STATUS:REPLACE             
 FORMAT:UNFORMATTED            ACCESS:STREAM              
 ACTION:READWRITE           

      THE LAST TIME STEP WILL BE PRINTED
      THE LAST TIME STEP WILL BE PRINTED

 PROCESSING OC OPTIONS

    HEAD INFORMATION WILL BE WRITTEN TO:
      UNIT NUMBER: 1027
      FILE NAME: model2.hds

 OPENED model2.hds
 FILE TYPE:DATA(BINARY)   UNIT 1027   STATUS:REPLACE             
 FORMAT:UNFORMATTED            ACCESS:STREAM              
 ACTION:READWRITE           

    BUDGET INFORMATION WILL BE WRITTEN TO:
      UNIT NUMBER: 1028
      FILE NAME: model2.cbc

 OPENED model2.cbc
 FILE TYPE:DATA(BINARY)   UNIT 1028   STATUS:REPLACE             
 FORMAT:UNFORMATTED            ACCESS:STREAM              
 ACTION:READWRITE           

 END OF OC OPTIONS

 MAW PACKAGE (MAW-1) STATIC WELL DATA
 -------------------------------------------------------------------------------------------------
                                     WELL     STARTING  NUMBER OF   CONDUCT.                      
   NUMBER     RADIUS      AREA      BOTTOM      HEAD    GWF NODES   EQUATION  NAME                
 -------------------------------------------------------------------------------------------------
     1       0.150      7.069E-02 -100.       10.0          1      SPECIFIED  WELL 1              
 -------------------------------------------------------------------------------------------------



 MAW PACKAGE (MAW-1) STATIC WELL CONNECTION DATA
 -----------------------------------------------------------------------------------------------------------------------
                                                                                                              SATURATED 
               WELL                           TOP OF   BOTTOM OF     SKIN                                        WELL   
   NUMBER   CONNECTION CELLID                 SCREEN     SCREEN     RADIUS     SKIN K      K11        K22      CONDUCT. 
 -----------------------------------------------------------------------------------------------------------------------
     1          1      (1,5,5)               0.00      -100.                                                   1.00     
 -----------------------------------------------------------------------------------------------------------------------



start timestep kper="1" kstp="1" mode="normal"


 BEGIN READING OUTPUT CONTROL FOR STRESS PERIOD 1
      ALL TIME STEPS WILL BE PRINTED
      ALL TIME STEPS WILL BE SAVED
      ALL TIME STEPS WILL BE PRINTED
      ALL TIME STEPS WILL BE SAVED

 END READING OUTPUT CONTROL FOR STRESS PERIOD 1

 MAW PACKAGE (MAW-1) DATA FOR PERIOD      1
 -------------------------------------------------------------------------------
   NUMBER   KEYWORD                  VALUE 1         VALUE 2         VALUE 3    
 -------------------------------------------------------------------------------
     1      RATE                      -10.                                      
 -------------------------------------------------------------------------------



 MAW PACKAGE (MAW-1) STEADY-STATE RATE DATA FOR PERIOD      1
 ---------------------------------------------------------------------------
                                       SPECIFIED       PUMP      REDUCTION  
   NUMBER      STATUS        RATE         HEAD      ELEVATION      LENGTH   
 ---------------------------------------------------------------------------
     1         ACTIVE    -10.000                    1.00000E+20             
 ---------------------------------------------------------------------------


 UBDSV1 SAVING     FLOW-JA-FACE ON UNIT   1028 AT TIME STEP      1, STRESS PERIOD      1

 MAW PACKAGE (MAW-1) FLOW RATES   PERIOD      1   STEP        1
 ----------------------------------------------------------------------------------------
   NUMBER   CELLID                    RATE       NAME                                    
 ----------------------------------------------------------------------------------------
     1      (1,5,5)              -10.000000      WELL 1                                  
 ----------------------------------------------------------------------------------------




 MAW-1 PACKAGE - SUMMARY OF FLOWS FOR EACH CONTROL VOLUME   PERIOD      1   STEP        1
 -------------------------------------------------------------------------------------------------------------------------------
                                                                                            CONSTANT                  PERCENT   
   NUMBER       GWF          RATE       STORAGE      CONSTANT     FROM MVR   RATE TO-MVR     TO-MVR      IN - OUT    DIFFERENCE 
 -------------------------------------------------------------------------------------------------------------------------------
     1       10.000      -5.0000       0.0000       0.0000       0.0000      -5.0000       0.0000      -2.71072E-12 -2.71072E-11
 -------------------------------------------------------------------------------------------------------------------------------


1
  HEAD IN LAYER   1 AT END OF TIME STEP   1 IN STRESS PERIOD    1
  ---------------------------------------------------------------------------

            1           2           3           4           5           6           7           8           9
 ............................................................................................................
   1   0.7146      0.6563      0.5982      0.5406      0.4839      0.4286      0.3742      0.3204      0.2669    
   2   0.7142      0.6551      0.5959      0.5374      0.4801      0.4251      0.3715      0.3184      0.2654    
   3   0.7143      0.6538      0.5931      0.5327      0.4741      0.4203      0.3681      0.3162      0.2640    
   4   0.7146      0.6526      0.5900      0.5264      0.4631      0.4138      0.3646      0.3142      0.2629    
   5   0.7149      0.6520      0.5879      0.5198      0.4383      0.4071      0.3624      0.3133      0.2623    
   6   0.7146      0.6526      0.5900      0.5264      0.4631      0.4138      0.3646      0.3142      0.2629    
   7   0.7143      0.6538      0.5931      0.5327      0.4741      0.4203      0.3681      0.3162      0.2640    
   8   0.7142      0.6551      0.5959      0.5374      0.4801      0.4251      0.3715      0.3184      0.2654    
   9   0.7146      0.6563      0.5982      0.5406      0.4839      0.4286      0.3742      0.3204      0.2669    

 HEAD WILL BE SAVED ON UNIT 1027 AT END OF TIME STEP    1, STRESS PERIOD    1


  MAW-1 BUDGET FOR ENTIRE MODEL AT END OF TIME STEP    1, STRESS PERIOD   1
  ------------------------------------------------------------------------------

     CUMULATIVE MAW-1      L**3       RATES FOR THIS TIME STEP      L**3/T
     ------------------                 ------------------------

           IN:                                      IN:
           ---                                      ---
                 GWF =          10.0000                   GWF =          10.0000
                RATE =           0.0000                  RATE =           0.0000
             STORAGE =           0.0000               STORAGE =           0.0000
            CONSTANT =           0.0000              CONSTANT =           0.0000
            FROM-MVR =           0.0000              FROM-MVR =           0.0000
         RATE-TO-MVR =           0.0000           RATE-TO-MVR =           0.0000
     CONSTANT-TO-MVR =           0.0000       CONSTANT-TO-MVR =           0.0000

            TOTAL IN =          10.0000              TOTAL IN =          10.0000

          OUT:                                     OUT:
          ----                                     ----
                 GWF =           0.0000                   GWF =           0.0000
                RATE =           5.0000                  RATE =           5.0000
             STORAGE =           0.0000               STORAGE =           0.0000
            CONSTANT =           0.0000              CONSTANT =           0.0000
            FROM-MVR =           0.0000              FROM-MVR =           0.0000
         RATE-TO-MVR =           5.0000           RATE-TO-MVR =           5.0000
     CONSTANT-TO-MVR =           0.0000       CONSTANT-TO-MVR =           0.0000

           TOTAL OUT =          10.0000             TOTAL OUT =          10.0000

            IN - OUT =      -2.7107E-12              IN - OUT =      -2.7107E-12

 PERCENT DISCREPANCY =          -0.00     PERCENT DISCREPANCY =          -0.00



  VOLUME BUDGET FOR ENTIRE MODEL AT END OF TIME STEP    1, STRESS PERIOD   1
  ---------------------------------------------------------------------------------------------------

     CUMULATIVE VOLUME      L**3       RATES FOR THIS TIME STEP      L**3/T          PACKAGE NAME    
     ------------------                 ------------------------                     ----------------

           IN:                                      IN:
           ---                                      ---
                 MAW =           0.0000                   MAW =           0.0000     MAW-1                            
        FLOW-JA-FACE =          57.3598          FLOW-JA-FACE =          57.3598     GWF-GWF_1                        

            TOTAL IN =          57.3598              TOTAL IN =          57.3598

          OUT:                                     OUT:
          ----                                     ----
                 MAW =          10.0000                   MAW =          10.0000     MAW-1                            
        FLOW-JA-FACE =          47.3598          FLOW-JA-FACE =          47.3598     GWF-GWF_1                        

           TOTAL OUT =          57.3598             TOTAL OUT =          57.3598

            IN - OUT =      -4.7633E-09              IN - OUT =      -4.7633E-09

 PERCENT DISCREPANCY =          -0.00     PERCENT DISCREPANCY =          -0.00




         TIME SUMMARY AT END OF TIME STEP    1 IN STRESS PERIOD    1
                    SECONDS     MINUTES      HOURS       DAYS        YEARS
                    -----------------------------------------------------------
   TIME STEP LENGTH  86400.      1440.0      24.000      1.0000     2.73785E-03
 STRESS PERIOD TIME  86400.      1440.0      24.000      1.0000     2.73785E-03
         TOTAL TIME  86400.      1440.0      24.000      1.0000     2.73785E-03


end timestep

 UBDSV06 SAVING     FLOW-JA-FACE IN MODEL CHILD            PACKAGE GWF-GWF_1       CONNECTED TO MODEL PARENT           PACKAGE GWF-GWF_1        ON UNIT   1028 AT TIME STEP      1, STRESS PERIOD      1

 EXG GWF-GWF_1   PERIOD      1   STEP        1
 -----------------------------------------------
   NUMBER   CELLID                    RATE      
 -----------------------------------------------
     1      (1,1,1)               5.8200823     
     2      (1,2,1)               5.8665280     
     3      (1,3,1)               6.0348636     
     4      (1,4,1)               6.1938762     
     5      (1,5,1)               6.3506981     
     6      (1,6,1)               6.1938762     
     7      (1,7,1)               6.0348636     
     8      (1,8,1)               5.8665280     
     9      (1,9,1)               5.8200823     
     10     (1,1,9)              -5.3364898     
     11     (1,2,9)              -5.2955905     
     12     (1,3,9)              -5.2437497     
     13     (1,4,9)              -5.2048552     
     14     (1,5,9)              -5.1984775     
     15     (1,6,9)              -5.2048552     
     16     (1,7,9)              -5.2437497     
     17     (1,8,9)              -5.2955905     
     18     (1,9,9)              -5.3364898     
     19     (1,1,1)               5.04619773E-02
     20     (1,1,2)               0.10614631    
     21     (1,1,3)               0.18244001    
     22     (1,1,4)               0.23514195    
     23     (1,1,5)               0.24204366    
     24     (1,1,6)               0.25548067    
     25     (1,1,7)               0.22227419    
     26     (1,1,8)               0.16245041    
     27     (1,1,9)               0.13278565    
     28     (1,9,1)               5.04619774E-02
     29     (1,9,2)               0.10614631    
     30     (1,9,3)               0.18244001    
     31     (1,9,4)               0.23514195    
     32     (1,9,5)               0.24204366    
     33     (1,9,6)               0.25548067    
     34     (1,9,7)               0.22227419    
     35     (1,9,8)               0.16245041    
     36     (1,9,9)               0.13278565    
 -----------------------------------------------


