                                   MODFLOW 6
                U.S. GEOLOGICAL SURVEY MODULAR HYDROLOGIC MODEL
                          GROUNDWATER FLOW MODEL (GWF)
                   VERSION 6.4.0 release candidate 10/05/2022
                               ***DEVELOP MODE***

   MODFLOW 6 compiled Oct 05 2022 03:42:46 with Intel(R) Fortran Intel(R) 64
   Compiler Classic for applications running on Intel(R) 64, Version 2021.6.0
                             Build 20220226_000000

This software is preliminary or provisional and is subject to 
revision. It is being provided to meet the need for timely best 
science. The software has not received final approval by the U.S. 
Geological Survey (USGS). No warranty, expressed or implied, is made 
by the USGS or the U.S. Government as to the functionality of the 
software and related material nor shall the fact of release 
constitute any such warranty. The software is provided on the 
condition that neither the USGS nor the U.S. Government shall be held 
liable for any damages resulting from the authorized or unauthorized 
use of the software.


As a work of the United States Government, this USGS product is 
in the public domain within the United States. You can copy, 
modify, distribute, and perform the work, even for commercial 
purposes, all without asking permission. Additionally, USGS 
waives copyright and related rights in the work worldwide 
through CC0 1.0 Universal Public Domain Dedication 
(https://creativecommons.org/publicdomain/zero/1.0/).

The following GNU Lesser General Public License (LGPL) libraries
are used in this USGS product:

    SPARSKIT version 2.0
      ilut, luson, and qsplit 
      (https://www-users.cse.umn.edu/~saad/software/SPARSKIT/)

    RCM - Reverse Cuthill McKee Ordering
      (https://people.math.sc.edu/Burkardt/f_src/rcm/rcm.html)

    BLAS - Basic Linear Algebra Subprograms Level 1
      (https://people.math.sc.edu/Burkardt/f_src/blas1_d/blas1_d.html)

    SPARSEKIT - Sparse Matrix Utility Package
      amux, dperm, dvperm, rperm, and cperm
      (https://people.sc.fsu.edu/~jburkardt/f77_src/sparsekit/sparsekit.html)

The following BSD-3 License libraries are used in this USGS product:

    Modern Fortran DAG Library
      Copyright (c) 2018, Jacob Williams
      All rights reserved.
      (https://github.com/jacobwilliams/daglib)

MODFLOW 6 compiler options: /Isrc\libmf6core.a.p /Isrc /I..\src
/Isrc\libmf6_external.a.p /MTd /nologo /warn:general /warn:truncated_source
/stand:f08 /Zi /traceback /O2 /Zi /fpe:0 /heap-arrays:0 /traceback /fpp
/Qdiag-disable:7416 /Qdiag-disable:7025 /Qdiag-disable:5268
/Fdsrc\libmf6core.a.p\Utilities_compilerversion.F90.pdb
/module:src\libmf6core.a.p
/Fosrc/libmf6core.a.p/Utilities_compilerversion.F90.obj /c

System command used to initiate simulation:
C:\Users\jlarsen\Documents\anaconda3\python.exe "C:/Users/jlarsen/AppData/Local/JetBrains/PyCharm Community Edition 2022.2.1/plugins/python-ce/helpers/pydev/pydevd.py" --multiprocess --qt-support=auto --client 127.0.0.1 --port 60318 --file C:/Users/jlarsen/Desktop/mf6_AG/modflow-api/develop.py

MODFLOW was compiled using uniform precision.

Real Variables
  KIND: 8
  TINY (smallest non-zero value):    2.225074-308
  HUGE (largest value):    1.797693+308
  PRECISION: 15
  BIT SIZE: 64

Integer Variables
  KIND: 4
  HUGE (largest value): 2147483647
  BIT SIZE: 32

Long Integer Variables
  KIND: 8
  HUGE (largest value): 9223372036854775807
  BIT SIZE: 64

Logical Variables
  KIND: 4
  BIT SIZE: 32
 

 OPENED flow.disu
 FILE TYPE:DISU6                  UNIT 1006   STATUS:OLD                 
 FORMAT:FORMATTED              ACCESS:SEQUENTIAL          
 ACTION:READ                


 OPENED flow.ic
 FILE TYPE:IC6                    UNIT 1007   STATUS:OLD                 
 FORMAT:FORMATTED              ACCESS:SEQUENTIAL          
 ACTION:READ                


 OPENED flow.chd
 FILE TYPE:CHD6                   UNIT 1008   STATUS:OLD                 
 FORMAT:FORMATTED              ACCESS:SEQUENTIAL          
 ACTION:READ                


 OPENED flow.npf
 FILE TYPE:NPF6                   UNIT 1009   STATUS:OLD                 
 FORMAT:FORMATTED              ACCESS:SEQUENTIAL          
 ACTION:READ                


 OPENED flow.rch
 FILE TYPE:RCH6                   UNIT 1010   STATUS:OLD                 
 FORMAT:FORMATTED              ACCESS:SEQUENTIAL          
 ACTION:READ                


 OPENED flow.oc
 FILE TYPE:OC6                    UNIT 1011   STATUS:OLD                 
 FORMAT:FORMATTED              ACCESS:SEQUENTIAL          
 ACTION:READ                


 DISU -- UNSTRUCTURED GRID DISCRETIZATION PACKAGE, VERSION 2 : 3/27/2014 - INPUT READ FROM UNIT 1006


 # Unstructured discretization file for MODFLOW-USG
 PROCESSING DISCRETIZATION OPTIONS
    MODEL LENGTH UNIT IS METERS
 END OF DISCRETIZATION OPTIONS
 PROCESSING DISCRETIZATION DIMENSIONS
    NODES = 121
    NJA   = 601
 END OF DISCRETIZATION OPTIONS
 PROCESSING GRIDDATA

                      TOP =   0.000000    

                      BOT =  -100.0000    

 OPENED flow.disu.area.dat
 FILE TYPE:OPEN/CLOSE   UNIT 1013   STATUS:OLD                 
 FORMAT:FORMATTED              ACCESS:SEQUENTIAL          
 ACTION:READ                


                     AREA
       1.0000E+04  1.0000E+04  1.0000E+04  1.0000E+04  1.0000E+04  1.0000E+04  1.0000E+04  1.0000E+04  1.0000E+04  1.0000E+04
       1.0000E+04  1.0000E+04  1.0000E+04  1.0000E+04  1.0000E+04  1.0000E+04  1.0000E+04  1.0000E+04  1.0000E+04  1.0000E+04
       1.0000E+04  1.0000E+04  1.0000E+04  1.0000E+04  1.0000E+04  1.0000E+04  1.0000E+04  1.0000E+04  1.0000E+04  1.0000E+04
       1.0000E+04  1.0000E+04  1.0000E+04  1.0000E+04  1.0000E+04  1.0000E+04  1.0000E+04  1.0000E+04  1.0000E+04  1.0000E+04
        1111.       1111.       1111.       1111.       1111.       1111.       1111.       1111.       1111.       1111.    
        1111.       1111.       1111.       1111.       1111.       1111.       1111.       1111.       1111.       1111.    
        1111.       1111.       1111.       1111.       1111.       1111.       1111.       1111.       1111.       1111.    
        1111.       1111.       1111.       1111.       1111.       1111.       1111.       1111.       1111.       1111.    
        1111.       1111.       1111.       1111.       1111.       1111.       1111.       1111.       1111.       1111.    
        1111.       1111.       1111.       1111.       1111.       1111.       1111.       1111.       1111.       1111.    
        1111.       1111.       1111.       1111.       1111.       1111.       1111.       1111.       1111.       1111.    
        1111.       1111.       1111.       1111.       1111.       1111.       1111.       1111.       1111.       1111.    
        1111.    
 END PROCESSING GRIDDATA
 PROCESSING CONNECTIONDATA

                      IHC = 1

 OPENED flow.disu.iac.dat
 FILE TYPE:OPEN/CLOSE   UNIT 1014   STATUS:OLD                 
 FORMAT:FORMATTED              ACCESS:SEQUENTIAL          
 ACTION:READ                


                      IAC
                3           4           4           4           4           4           3           4           5           7
                7           7           5           4           4           7           7           4           4           7
                7           4           4           7           7           4           4           5           7           7
                7           5           4           3           4           4           4           4           4           3
                5           5           5           5           5           5           5           5           5           5
                5           5           5           5           5           5           5           5           5           5
                5           5           5           5           5           5           5           5           5           5
                5           5           5           5           5           5           5           5           5           5
                5           5           5           5           5           5           5           5           5           5
                5           5           5           5           5           5           5           5           5           5
                5           5           5           5           5           5           5           5           5           5
                5           5           5           5           5           5           5           5           5           5
                5

 OPENED flow.disu.ja.dat
 FILE TYPE:OPEN/CLOSE   UNIT 1015   STATUS:OLD                 
 FORMAT:FORMATTED              ACCESS:SEQUENTIAL          
 ACTION:READ                


                       JA
                1           2           8           2           1           3           9           3           2           4
               10           4           3           5          11           5           4           6          12           6
                5           7          13           7           6          14           8           1           9          15
                9           2           8          10          16          10           3           9          11          41
               42          43          11           4          10          12          44          45          46          12
                5          11          13          47          48          49          13           6          12          14
               17          14           7          13          18          15           8          16          19          16
                9          15          20          41          50          59          17          13          18          21
               49          58          67          18          14          17          22          19          15          20
               23          20          16          19          24          68          77          86          21          17
               22          25          76          85          94          22          18          21          26          23
               19          24          27          24          20          23          28          95         104         113
               25          21          26          32         103         112         121          26          22          25
               33          27          23          28          34          28          24          27          29          35
               29          28          30          36         113         114         115          30          29          31
               37         116         117         118          31          30          32          38         119         120
              121          32          25          31          33          39          33          26          32          40
               34          27          35          35          28          34          36          36          29          35
               37          37          30          36          38          38          31          37          39          39
               32          38          40          40          33          39          41          10          16          42
               50          42          10          41          43          51          43          10          42          44
               52          44          11          43          45          53          45          11          44          46
               54          46          11          45          47          55          47          12          46          48
               56          48          12          47          49          57          49          12          17          48
               58          50          16          41          51          59          51          42          50          52
               60          52          43          51          53          61          53          44          52          54
               62          54          45          53          55          63          55          46          54          56
               64          56          47          55          57          65          57          48          56          58
               66          58          17          49          57          67          59          16          50          60
               68          60          51          59          61          69          61          52          60          62
               70          62          53          61          63          71          63          54          62          64
               72          64          55          63          65          73          65          56          64          66
               74          66          57          65          67          75          67          17          58          66
               76          68          20          59          69          77          69          60          68          70
               78          70          61          69          71          79          71          62          70          72
               80          72          63          71          73          81          73          64          72          74
               82          74          65          73          75          83          75          66          74          76
               84          76          21          67          75          85          77          20          68          78
               86          78          69          77          79          87          79          70          78          80
               88          80          71          79          81          89          81          72          80          82
               90          82          73          81          83          91          83          74          82          84
               92          84          75          83          85          93          85          21          76          84
               94          86          20          77          87          95          87          78          86          88
               96          88          79          87          89          97          89          80          88          90
               98          90          81          89          91          99          91          82          90          92
              100          92          83          91          93         101          93          84          92          94
              102          94          21          85          93         103          95          24          86          96
              104          96          87          95          97         105          97          88          96          98
              106          98          89          97          99         107          99          90          98         100
              108         100          91          99         101         109         101          92         100         102
              110         102          93         101         103         111         103          25          94         102
              112         104          24          95         105         113         105          96         104         106
              114         106          97         105         107         115         107          98         106         108
              116         108          99         107         109         117         109         100         108         110
              118         110         101         109         111         119         111         102         110         112
              120         112          25         103         111         121         113          24          29         104
              114         114          29         105         113         115         115          29         106         114
              116         116          30         107         115         117         117          30         108         116
              118         118          30         109         117         119         119          31         110         118
              120         120          31         111         119         121         121          25          31         112
              120

 OPENED flow.disu.cl12.dat
 FILE TYPE:OPEN/CLOSE   UNIT 1016   STATUS:OLD                 
 FORMAT:FORMATTED              ACCESS:SEQUENTIAL          
 ACTION:READ                


                     CL12
        0.000       50.00       50.00       0.000       50.00       50.00       50.00       0.000       50.00       50.00    
        50.00       0.000       50.00       50.00       50.00       0.000       50.00       50.00       50.00       0.000    
        50.00       50.00       50.00       0.000       50.00       50.00       0.000       50.00       50.00       50.00    
        0.000       50.00       50.00       50.00       50.00       0.000       50.00       50.00       50.00       50.00    
        50.00       50.00       0.000       50.00       50.00       50.00       50.00       50.00       50.00       0.000    
        50.00       50.00       50.00       50.00       50.00       50.00       0.000       50.00       50.00       50.00    
        50.00       0.000       50.00       50.00       50.00       0.000       50.00       50.00       50.00       0.000    
        50.00       50.00       50.00       50.00       50.00       50.00       0.000       50.00       50.00       50.00    
        50.00       50.00       50.00       0.000       50.00       50.00       50.00       0.000       50.00       50.00    
        50.00       0.000       50.00       50.00       50.00       50.00       50.00       50.00       0.000       50.00    
        50.00       50.00       50.00       50.00       50.00       0.000       50.00       50.00       50.00       0.000    
        50.00       50.00       50.00       0.000       50.00       50.00       50.00       50.00       50.00       50.00    
        0.000       50.00       50.00       50.00       50.00       50.00       50.00       0.000       50.00       50.00    
        50.00       0.000       50.00       50.00       50.00       0.000       50.00       50.00       50.00       50.00    
        0.000       50.00       50.00       50.00       50.00       50.00       50.00       0.000       50.00       50.00    
        50.00       50.00       50.00       50.00       0.000       50.00       50.00       50.00       50.00       50.00    
        50.00       0.000       50.00       50.00       50.00       50.00       0.000       50.00       50.00       50.00    
        0.000       50.00       50.00       0.000       50.00       50.00       50.00       0.000       50.00       50.00    
        50.00       0.000       50.00       50.00       50.00       0.000       50.00       50.00       50.00       0.000    
        50.00       50.00       50.00       0.000       50.00       50.00       0.000       16.67       16.67       16.67    
        16.67       0.000       16.67       16.67       16.67       16.67       0.000       16.67       16.67       16.67    
        16.67       0.000       16.67       16.67       16.67       16.67       0.000       16.67       16.67       16.67    
        16.67       0.000       16.67       16.67       16.67       16.67       0.000       16.67       16.67       16.67    
        16.67       0.000       16.67       16.67       16.67       16.67       0.000       16.67       16.67       16.67    
        16.67       0.000       16.67       16.67       16.67       16.67       0.000       16.67       16.67       16.67    
        16.67       0.000       16.67       16.67       16.67       16.67       0.000       16.67       16.67       16.67    
        16.67       0.000       16.67       16.67       16.67       16.67       0.000       16.67       16.67       16.67    
        16.67       0.000       16.67       16.67       16.67       16.67       0.000       16.67       16.67       16.67    
        16.67       0.000       16.67       16.67       16.67       16.67       0.000       16.67       16.67       16.67    
        16.67       0.000       16.67       16.67       16.67       16.67       0.000       16.67       16.67       16.67    
        16.67       0.000       16.67       16.67       16.67       16.67       0.000       16.67       16.67       16.67    
        16.67       0.000       16.67       16.67       16.67       16.67       0.000       16.67       16.67       16.67    
        16.67       0.000       16.67       16.67       16.67       16.67       0.000       16.67       16.67       16.67    
        16.67       0.000       16.67       16.67       16.67       16.67       0.000       16.67       16.67       16.67    
        16.67       0.000       16.67       16.67       16.67       16.67       0.000       16.67       16.67       16.67    
        16.67       0.000       16.67       16.67       16.67       16.67       0.000       16.67       16.67       16.67    
        16.67       0.000       16.67       16.67       16.67       16.67       0.000       16.67       16.67       16.67    
        16.67       0.000       16.67       16.67       16.67       16.67       0.000       16.67       16.67       16.67    
        16.67       0.000       16.67       16.67       16.67       16.67       0.000       16.67       16.67       16.67    
        16.67       0.000       16.67       16.67       16.67       16.67       0.000       16.67       16.67       16.67    
        16.67       0.000       16.67       16.67       16.67       16.67       0.000       16.67       16.67       16.67    
        16.67       0.000       16.67       16.67       16.67       16.67       0.000       16.67       16.67       16.67    
        16.67       0.000       16.67       16.67       16.67       16.67       0.000       16.67       16.67       16.67    
        16.67       0.000       16.67       16.67       16.67       16.67       0.000       16.67       16.67       16.67    
        16.67       0.000       16.67       16.67       16.67       16.67       0.000       16.67       16.67       16.67    
        16.67       0.000       16.67       16.67       16.67       16.67       0.000       16.67       16.67       16.67    
        16.67       0.000       16.67       16.67       16.67       16.67       0.000       16.67       16.67       16.67    
        16.67       0.000       16.67       16.67       16.67       16.67       0.000       16.67       16.67       16.67    
        16.67       0.000       16.67       16.67       16.67       16.67       0.000       16.67       16.67       16.67    
        16.67       0.000       16.67       16.67       16.67       16.67       0.000       16.67       16.67       16.67    
        16.67       0.000       16.67       16.67       16.67       16.67       0.000       16.67       16.67       16.67    
        16.67       0.000       16.67       16.67       16.67       16.67       0.000       16.67       16.67       16.67    
        16.67       0.000       16.67       16.67       16.67       16.67       0.000       16.67       16.67       16.67    
        16.67       0.000       16.67       16.67       16.67       16.67       0.000       16.67       16.67       16.67    
        16.67       0.000       16.67       16.67       16.67       16.67       0.000       16.67       16.67       16.67    
        16.67       0.000       16.67       16.67       16.67       16.67       0.000       16.67       16.67       16.67    
        16.67       0.000       16.67       16.67       16.67       16.67       0.000       16.67       16.67       16.67    
        16.67       0.000       16.67       16.67       16.67       16.67       0.000       16.67       16.67       16.67    
        16.67       0.000       16.67       16.67       16.67       16.67       0.000       16.67       16.67       16.67    
        16.67       0.000       16.67       16.67       16.67       16.67       0.000       16.67       16.67       16.67    
        16.67    

 OPENED flow.disu.hwva.dat
 FILE TYPE:OPEN/CLOSE   UNIT 1017   STATUS:OLD                 
 FORMAT:FORMATTED              ACCESS:SEQUENTIAL          
 ACTION:READ                


                     HWVA
        0.000       100.0       100.0       0.000       100.0       100.0       100.0       0.000       100.0       100.0    
        100.0       0.000       100.0       100.0       100.0       0.000       100.0       100.0       100.0       0.000    
        100.0       100.0       100.0       0.000       100.0       100.0       0.000       100.0       100.0       100.0    
        0.000       100.0       100.0       100.0       100.0       0.000       100.0       100.0       100.0       33.33    
        33.33       33.33       0.000       100.0       100.0       100.0       33.33       33.33       33.33       0.000    
        100.0       100.0       100.0       33.33       33.33       33.33       0.000       100.0       100.0       100.0    
        100.0       0.000       100.0       100.0       100.0       0.000       100.0       100.0       100.0       0.000    
        100.0       100.0       100.0       33.33       33.33       33.33       0.000       100.0       100.0       100.0    
        33.33       33.33       33.33       0.000       100.0       100.0       100.0       0.000       100.0       100.0    
        100.0       0.000       100.0       100.0       100.0       33.33       33.33       33.33       0.000       100.0    
        100.0       100.0       33.33       33.33       33.33       0.000       100.0       100.0       100.0       0.000    
        100.0       100.0       100.0       0.000       100.0       100.0       100.0       33.33       33.33       33.33    
        0.000       100.0       100.0       100.0       33.33       33.33       33.33       0.000       100.0       100.0    
        100.0       0.000       100.0       100.0       100.0       0.000       100.0       100.0       100.0       100.0    
        0.000       100.0       100.0       100.0       33.33       33.33       33.33       0.000       100.0       100.0    
        100.0       33.33       33.33       33.33       0.000       100.0       100.0       100.0       33.33       33.33    
        33.33       0.000       100.0       100.0       100.0       100.0       0.000       100.0       100.0       100.0    
        0.000       100.0       100.0       0.000       100.0       100.0       100.0       0.000       100.0       100.0    
        100.0       0.000       100.0       100.0       100.0       0.000       100.0       100.0       100.0       0.000    
        100.0       100.0       100.0       0.000       100.0       100.0       0.000       33.33       33.33       33.33    
        33.33       0.000       33.33       33.33       33.33       33.33       0.000       33.33       33.33       33.33    
        33.33       0.000       33.33       33.33       33.33       33.33       0.000       33.33       33.33       33.33    
        33.33       0.000       33.33       33.33       33.33       33.33       0.000       33.33       33.33       33.33    
        33.33       0.000       33.33       33.33       33.33       33.33       0.000       33.33       33.33       33.33    
        33.33       0.000       33.33       33.33       33.33       33.33       0.000       33.33       33.33       33.33    
        33.33       0.000       33.33       33.33       33.33       33.33       0.000       33.33       33.33       33.33    
        33.33       0.000       33.33       33.33       33.33       33.33       0.000       33.33       33.33       33.33    
        33.33       0.000       33.33       33.33       33.33       33.33       0.000       33.33       33.33       33.33    
        33.33       0.000       33.33       33.33       33.33       33.33       0.000       33.33       33.33       33.33    
        33.33       0.000       33.33       33.33       33.33       33.33       0.000       33.33       33.33       33.33    
        33.33       0.000       33.33       33.33       33.33       33.33       0.000       33.33       33.33       33.33    
        33.33       0.000       33.33       33.33       33.33       33.33       0.000       33.33       33.33       33.33    
        33.33       0.000       33.33       33.33       33.33       33.33       0.000       33.33       33.33       33.33    
        33.33       0.000       33.33       33.33       33.33       33.33       0.000       33.33       33.33       33.33    
        33.33       0.000       33.33       33.33       33.33       33.33       0.000       33.33       33.33       33.33    
        33.33       0.000       33.33       33.33       33.33       33.33       0.000       33.33       33.33       33.33    
        33.33       0.000       33.33       33.33       33.33       33.33       0.000       33.33       33.33       33.33    
        33.33       0.000       33.33       33.33       33.33       33.33       0.000       33.33       33.33       33.33    
        33.33       0.000       33.33       33.33       33.33       33.33       0.000       33.33       33.33       33.33    
        33.33       0.000       33.33       33.33       33.33       33.33       0.000       33.33       33.33       33.33    
        33.33       0.000       33.33       33.33       33.33       33.33       0.000       33.33       33.33       33.33    
        33.33       0.000       33.33       33.33       33.33       33.33       0.000       33.33       33.33       33.33    
        33.33       0.000       33.33       33.33       33.33       33.33       0.000       33.33       33.33       33.33    
        33.33       0.000       33.33       33.33       33.33       33.33       0.000       33.33       33.33       33.33    
        33.33       0.000       33.33       33.33       33.33       33.33       0.000       33.33       33.33       33.33    
        33.33       0.000       33.33       33.33       33.33       33.33       0.000       33.33       33.33       33.33    
        33.33       0.000       33.33       33.33       33.33       33.33       0.000       33.33       33.33       33.33    
        33.33       0.000       33.33       33.33       33.33       33.33       0.000       33.33       33.33       33.33    
        33.33       0.000       33.33       33.33       33.33       33.33       0.000       33.33       33.33       33.33    
        33.33       0.000       33.33       33.33       33.33       33.33       0.000       33.33       33.33       33.33    
        33.33       0.000       33.33       33.33       33.33       33.33       0.000       33.33       33.33       33.33    
        33.33       0.000       33.33       33.33       33.33       33.33       0.000       33.33       33.33       33.33    
        33.33       0.000       33.33       33.33       33.33       33.33       0.000       33.33       33.33       33.33    
        33.33       0.000       33.33       33.33       33.33       33.33       0.000       33.33       33.33       33.33    
        33.33       0.000       33.33       33.33       33.33       33.33       0.000       33.33       33.33       33.33    
        33.33       0.000       33.33       33.33       33.33       33.33       0.000       33.33       33.33       33.33    
        33.33       0.000       33.33       33.33       33.33       33.33       0.000       33.33       33.33       33.33    
        33.33       0.000       33.33       33.33       33.33       33.33       0.000       33.33       33.33       33.33    
        33.33       0.000       33.33       33.33       33.33       33.33       0.000       33.33       33.33       33.33    
        33.33       0.000       33.33       33.33       33.33       33.33       0.000       33.33       33.33       33.33    
        33.33    
 END PROCESSING CONNECTIONDATA
 ANGLDEGX NOT FOUND IN CONNECTIONDATA BLOCK. SOME CAPABILITIES MAY BE LIMITED.

 NPF -- NODE PROPERTY FLOW PACKAGE, VERSION 1, 3/30/2015 INPUT READ FROM UNIT 1009


 PROCESSING NPF OPTIONS
    CELL-BY-CELL FLOW INFORMATION WILL BE SAVED TO BINARY FILE WHENEVER ICBCFL IS NOT ZERO.
 END OF NPF OPTIONS
 #
 PROCESSING GRIDDATA
 #
 #apply these arrays for the entire simulation
 #
 #icelltype(nodes) is 0:confined, 1:convertible, 4:upstream?

                ICELLTYPE = 0
 #	
 #K(nodes) horizontal hydraulic conductivity

                        K =   1.000000    
 #
 #K33(nodes) vertical hydraulic conductivity

                      K33 =   1.000000    
 #
 #this will crash it  funkyarray
 #	constant
 K22 not provided.  Setting K22 = K.
 END PROCESSING GRIDDATA

 RCH   -- RCH PACKAGE, VERSION 8, 2/22/2014 INPUT READ FROM UNIT 1010

 PROCESSING RCH OPTIONS
    RECHARGE WILL BE APPLIED TO SPECIFIED CELL.
 END OF RCH OPTIONS

 PROCESSING RCH DIMENSIONS
    MAXBOUND =      10
 END OF RCH DIMENSIONS

 CHD   -- CHD PACKAGE, VERSION 8, 2/22/2014 INPUT READ FROM UNIT 1008

 PROCESSING CHD OPTIONS
    LISTS OF CHD CELLS WILL BE PRINTED.
    CHD FLOWS WILL BE PRINTED TO LISTING FILE.
    FLOWS WILL BE SAVED TO BUDGET FILE SPECIFIED IN OUTPUT CONTROL
 END OF CHD OPTIONS

 PROCESSING CHD DIMENSIONS
    MAXBOUND =      14
 END OF CHD DIMENSIONS

 IC -- INITIAL CONDITIONS PACKAGE, VERSION 8, 3/28/2015 INPUT READ FROM UNIT 1007
 # Basic package file for MODFLOW-USG, generated by Flopy.
 PROCESSING IC OPTIONS
 END OF IC OPTIONS
 PROCESSING GRIDDATA

     INITIAL HEAD
        1.000       0.000       0.000       0.000       0.000       0.000       0.000       1.000       0.000       0.000    
        0.000       0.000       0.000       0.000       1.000       0.000       0.000       0.000       1.000       0.000    
        0.000       0.000       1.000       0.000       0.000       0.000       1.000       0.000       0.000       0.000    
        0.000       0.000       0.000       1.000       0.000       0.000       0.000       0.000       0.000       0.000    
        0.000       0.000       0.000       0.000       0.000       0.000       0.000       0.000       0.000       0.000    
        0.000       0.000       0.000       0.000       0.000       0.000       0.000       0.000       0.000       0.000    
        0.000       0.000       0.000       0.000       0.000       0.000       0.000       0.000       0.000       0.000    
        0.000       0.000       0.000       0.000       0.000       0.000       0.000       0.000       0.000       0.000    
        0.000       0.000       0.000       0.000       0.000       0.000       0.000       0.000       0.000       0.000    
        0.000       0.000       0.000       0.000       0.000       0.000       0.000       0.000       0.000       0.000    
        0.000       0.000       0.000       0.000       0.000       0.000       0.000       0.000       0.000       0.000    
        0.000       0.000       0.000       0.000       0.000       0.000       0.000       0.000       0.000       0.000    
        0.000    
 END PROCESSING GRIDDATA
    BINARY GRID INFORMATION WILL BE WRITTEN TO:
      UNIT NUMBER: 1018
      FILE NAME: C:\Users\jlarsen\Desktop\mf6_AG\modflow-api\disu_model\flow.disu.grb

 OPENED C:\Users\jlarsen\Desktop\mf6_AG\modflow-api\disu_model\flow.disu.grb
 FILE TYPE:DATA(BINARY)   UNIT 1018   STATUS:REPLACE             
 FORMAT:UNFORMATTED            ACCESS:STREAM              
 ACTION:READWRITE           

      THE LAST TIME STEP WILL BE PRINTED
      THE LAST TIME STEP WILL BE PRINTED

 PROCESSING OC OPTIONS

    HEAD INFORMATION WILL BE WRITTEN TO:
      UNIT NUMBER: 1019
      FILE NAME: flow.hds

 OPENED flow.hds
 FILE TYPE:DATA(BINARY)   UNIT 1019   STATUS:REPLACE             
 FORMAT:UNFORMATTED            ACCESS:STREAM              
 ACTION:READWRITE           

    BUDGET INFORMATION WILL BE WRITTEN TO:
      UNIT NUMBER: 1020
      FILE NAME: flow.cbc

 OPENED flow.cbc
 FILE TYPE:DATA(BINARY)   UNIT 1020   STATUS:REPLACE             
 FORMAT:UNFORMATTED            ACCESS:STREAM              
 ACTION:READWRITE           

 END OF OC OPTIONS
